[General]
network = CartagenaOPAL
rng-class = "cMersenneTwister"
repeat = 1

**.result-recording-modes = all

**.numberOfGateways = 1
**.loRaGW[*].numUdpApps = 1
**.loRaGW[*].packetForwarder.localPort = 2000
**.loRaGW[*].packetForwarder.destPort = 1000
**.loRaGW[*].packetForwarder.destAddresses = "networkServer"
**.loRaGW[*].packetForwarder.indexNumber = 0

**.loRaGW[*].receptionRadius = 1

**.LoRaGWNic.radio.antennaType = "IsotropicAntenna"
**.LoRaNic.radio.antennaType = "IsotropicAntenna"
#**.loRaGW[*].**.antenna.gainPath = "/home/anrunie/Documentos/GIRTEL/LoRa-INET-AI1/inet/src/inet/physicallayer/base/packetlevel/gains/gain11467-2.txt"
#**.loRaNodes[0].**.antenna.gainPath = "/home/anrunie/Documentos/GIRTEL/LoRa-INET-AI1/inet/src/inet/physicallayer/base/packetlevel/gains/gain17514-2.txt"

**.LoRaGWNic.radio.iAmGateway = true
**.loRaGW[*].**.initFromDisplayString = false

**.loRaGW[0].**.initialX = 1583.34m + uniform(-0.30m,0.30m)
**.loRaGW[0].**.initialY = 0.8m + uniform(-0.30m,0.30m)
**.loRaGW[0].**.initialZ = 644.60m + uniform(-0.30m,0.30m)
**.networkServer.numUdpApps = 1
**.networkServer.**.evaluateADRinServer = false
**.networkServer.udpApp[0].typename = "NetworkServerApp"
**.networkServer.udpApp[0].destAddresses = "loRaGW[*]"
**.networkServer.udpApp[0].destPort = 2000
**.networkServer.udpApp[0].localPort = 1000
**.networkServer.udpApp[0].adrMethod = ${"avg"}

**.numberOfPacketsToSend = 0 #0 means infinite number of packets
sim-time-limit = 1d
warmup-period = 3h
simtime-resolution = -11

**.timeToFirstPacket = exponential(100s)
**.timeToNextPacket = exponential(100s)
**.alohaChannelModel = false

**.numberOfNodes = 160

**.loRaNodes[*].**.initFromDisplayString = false
**.loRaNodes[*].**.evaluateADRinNode = false
**.loRaNodes[*].**initialLoRaSF = 12
**.loRaNodes[*].**initialLoRaBW = 125 kHz
**.loRaNodes[*].**initialLoRaCR = 5
**.loRaNodes[*].**initialLoRaTP = 14 dBm

**.loRaNodes[0].**.initialX = 1418.8838067688048m + uniform(-0.30m,0.30m)
**.loRaNodes[0].**.initialY = 0.8m + uniform(-0.30m,0.30m)
**.loRaNodes[0].**.initialZ = 1133.4398381491192m + uniform(-0.30m,0.30m)
**.loRaNodes[1].**.initialX = 1418.2473610360175m + uniform(-0.30m,0.30m)
**.loRaNodes[1].**.initialY = 0.8m + uniform(-0.30m,0.30m)
**.loRaNodes[1].**.initialZ = 1163.0298073617741m + uniform(-0.30m,0.30m)
**.loRaNodes[2].**.initialX = 1402.9376132831676m + uniform(-0.30m,0.30m)
**.loRaNodes[2].**.initialY = 0.8m + uniform(-0.30m,0.30m)
**.loRaNodes[2].**.initialZ = 1190.4539537769742m + uniform(-0.30m,0.30m)
**.loRaNodes[3].**.initialX = 1387.429101683083m + uniform(-0.30m,0.30m)
**.loRaNodes[3].**.initialY = 0.8m + uniform(-0.30m,0.30m)
**.loRaNodes[3].**.initialZ = 1227.1249917405657m + uniform(-0.30m,0.30m)
**.loRaNodes[4].**.initialX = 1343.1707870938117m + uniform(-0.30m,0.30m)
**.loRaNodes[4].**.initialY = 0.8m + uniform(-0.30m,0.30m)
**.loRaNodes[4].**.initialZ = 1231.723990978673m + uniform(-0.30m,0.30m)
**.loRaNodes[5].**.initialX = 1225.625750681851m + uniform(-0.30m,0.30m)
**.loRaNodes[5].**.initialY = 0.8m + uniform(-0.30m,0.30m)
**.loRaNodes[5].**.initialZ = 1221.7966638794169m + uniform(-0.30m,0.30m)
**.loRaNodes[6].**.initialX = 889.2889513385016m + uniform(-0.30m,0.30m)
**.loRaNodes[6].**.initialY = 0.8m + uniform(-0.30m,0.30m)
**.loRaNodes[6].**.initialZ = 1118.3654011986218m + uniform(-0.30m,0.30m)
**.loRaNodes[7].**.initialX = 889.9234988744138m + uniform(-0.30m,0.30m)
**.loRaNodes[7].**.initialY = 0.8m + uniform(-0.30m,0.30m)
**.loRaNodes[7].**.initialZ = 1088.775461367797m + uniform(-0.30m,0.30m)
**.loRaNodes[8].**.initialX = 905.0730081401998m + uniform(-0.30m,0.30m)
**.loRaNodes[8].**.initialY = 0.8m + uniform(-0.30m,0.30m)
**.loRaNodes[8].**.initialZ = 1068.7479107519612m + uniform(-0.30m,0.30m)
**.loRaNodes[9].**.initialX = 921.5712012988515m + uniform(-0.30m,0.30m)
**.loRaNodes[9].**.initialY = 0.8m + uniform(-0.30m,0.30m)
**.loRaNodes[9].**.initialZ = 985.8417676640674m + uniform(-0.30m,0.30m)
**.loRaNodes[10].**.initialX = 936.7209585035453m + uniform(-0.30m,0.30m)
**.loRaNodes[10].**.initialY = 0.8m + uniform(-0.30m,0.30m)
**.loRaNodes[10].**.initialZ = 965.8142683953047m + uniform(-0.30m,0.30m)
**.loRaNodes[11].**.initialX = 807.5502628800459m + uniform(-0.30m,0.30m)
**.loRaNodes[11].**.initialY = 0.8m + uniform(-0.30m,0.30m)
**.loRaNodes[11].**.initialZ = 811.3265987075865m + uniform(-0.30m,0.30m)
**.loRaNodes[12].**.initialX = 552.350705516059m + uniform(-0.30m,0.30m)
**.loRaNodes[12].**.initialY = 0.8m + uniform(-0.30m,0.30m)
**.loRaNodes[12].**.initialZ = 1042.6886541196145m + uniform(-0.30m,0.30m)
**.loRaNodes[13].**.initialX = 766.8170198623557m + uniform(-0.30m,0.30m)
**.loRaNodes[13].**.initialY = 0.8m + uniform(-0.30m,0.30m)
**.loRaNodes[13].**.initialZ = 651.3348396504298m + uniform(-0.30m,0.30m)
**.loRaNodes[14].**.initialX = 782.0065629023593m + uniform(-0.30m,0.30m)
**.loRaNodes[14].**.initialY = 0.8m + uniform(-0.30m,0.30m)
**.loRaNodes[14].**.initialZ = 629.4576891907491m + uniform(-0.30m,0.30m)
**.loRaNodes[15].**.initialX = 797.3943437869893m + uniform(-0.30m,0.30m)
**.loRaNodes[15].**.initialY = 0.8m + uniform(-0.30m,0.30m)
**.loRaNodes[15].**.initialZ = 598.3337160735391m + uniform(-0.30m,0.30m)
**.loRaNodes[16].**.initialX = 798.1473511082586m + uniform(-0.30m,0.30m)
**.loRaNodes[16].**.initialY = 0.8m + uniform(-0.30m,0.30m)
**.loRaNodes[16].**.initialZ = 563.1956935506314m + uniform(-0.30m,0.30m)
**.loRaNodes[17].**.initialX = 813.7334714725148m + uniform(-0.30m,0.30m)
**.loRaNodes[17].**.initialY = 0.8m + uniform(-0.30m,0.30m)
**.loRaNodes[17].**.initialZ = 522.8248992143199m + uniform(-0.30m,0.30m)
**.loRaNodes[18].**.initialX = 814.4072605065303m + uniform(-0.30m,0.30m)
**.loRaNodes[18].**.initialY = 0.8m + uniform(-0.30m,0.30m)
**.loRaNodes[18].**.initialZ = 491.38561820052564m + uniform(-0.30m,0.30m)
**.loRaNodes[19].**.initialX = 876.2775631676195m + uniform(-0.30m,0.30m)
**.loRaNodes[19].**.initialY = 0.8m + uniform(-0.30m,0.30m)
**.loRaNodes[19].**.initialZ = 352.0951377921738m + uniform(-0.30m,0.30m)
**.loRaNodes[20].**.initialX = 997.9213626376586m + uniform(-0.30m,0.30m)
**.loRaNodes[20].**.initialY = 0.8m + uniform(-0.30m,0.30m)
**.loRaNodes[20].**.initialZ = 171.5319850645028m + uniform(-0.30m,0.30m)
**.loRaNodes[21].**.initialX = 1027.8272171304561m + uniform(-0.30m,0.30m)
**.loRaNodes[21].**.initialY = 0.8m + uniform(-0.30m,0.30m)
**.loRaNodes[21].**.initialZ = 149.9709110511467m + uniform(-0.30m,0.30m)
**.loRaNodes[22].**.initialX = 1071.8131689805305m + uniform(-0.30m,0.30m)
**.loRaNodes[22].**.initialY = 0.8m + uniform(-0.30m,0.30m)
**.loRaNodes[22].**.initialZ = 158.31561918370426m + uniform(-0.30m,0.30m)
**.loRaNodes[23].**.initialX = 1101.203251937055m + uniform(-0.30m,0.30m)
**.loRaNodes[23].**.initialY = 0.8m + uniform(-0.30m,0.30m)
**.loRaNodes[23].**.initialZ = 160.7966068657115m + uniform(-0.30m,0.30m)
**.loRaNodes[24].**.initialX = 1130.6727249028627m + uniform(-0.30m,0.30m)
**.loRaNodes[24].**.initialY = 0.8m + uniform(-0.30m,0.30m)
**.loRaNodes[24].**.initialZ = 159.57896013278514m + uniform(-0.30m,0.30m)
**.loRaNodes[25].**.initialX = 1160.142212554696m + uniform(-0.30m,0.30m)
**.loRaNodes[25].**.initialY = 0.8m + uniform(-0.30m,0.30m)
**.loRaNodes[25].**.initialZ = 158.36141783278435m + uniform(-0.30m,0.30m)
**.loRaNodes[26].**.initialX = 1204.2471785355592m + uniform(-0.30m,0.30m)
**.loRaNodes[26].**.initialY = 0.8m + uniform(-0.30m,0.30m)
**.loRaNodes[26].**.initialZ = 161.1587248267606m + uniform(-0.30m,0.30m)
**.loRaNodes[27].**.initialX = 1233.6372388909804m + uniform(-0.30m,0.30m)
**.loRaNodes[27].**.initialY = 0.8m + uniform(-0.30m,0.30m)
**.loRaNodes[27].**.initialZ = 163.64018375379965m + uniform(-0.30m,0.30m)
**.loRaNodes[28].**.initialX = 1277.7421745042084m + uniform(-0.30m,0.30m)
**.loRaNodes[28].**.initialY = 0.8m + uniform(-0.30m,0.30m)
**.loRaNodes[28].**.initialZ = 166.43788363225758m + uniform(-0.30m,0.30m)
**.loRaNodes[29].**.initialX = 1337.4364063414978m + uniform(-0.30m,0.30m)
**.loRaNodes[29].**.initialY = 0.8m + uniform(-0.30m,0.30m)
**.loRaNodes[29].**.initialZ = 128.86591426143423m + uniform(-0.30m,0.30m)
**.loRaNodes[30].**.initialX = 1338.3108263598988m + uniform(-0.30m,0.30m)
**.loRaNodes[30].**.initialY = 0.8m + uniform(-0.30m,0.30m)
**.loRaNodes[30].**.initialZ = 88.17977073043585m + uniform(-0.30m,0.30m)
**.loRaNodes[31].**.initialX = 1339.0660013981396m + uniform(-0.30m,0.30m)
**.loRaNodes[31].**.initialY = 0.8m + uniform(-0.30m,0.30m)
**.loRaNodes[31].**.initialZ = 53.04173946613446m + uniform(-0.30m,0.30m)
**.loRaNodes[32].**.initialX = 1339.7416797023034m + uniform(-0.30m,0.30m)
**.loRaNodes[32].**.initialY = 0.8m + uniform(-0.30m,0.30m)
**.loRaNodes[32].**.initialZ = 21.602449738420546m + uniform(-0.30m,0.30m)
**.loRaNodes[33].**.initialX = 1340.0596444518305m + uniform(-0.30m,0.30m)
**.loRaNodes[33].**.initialY = 0.8m + uniform(-0.30m,0.30m)
**.loRaNodes[33].**.initialZ = 6.8074903269298375m + uniform(-0.30m,0.30m)
**.loRaNodes[34].**.initialX = 1338.748033626005m + uniform(-0.30m,0.30m)
**.loRaNodes[34].**.initialY = 0.8m + uniform(-0.30m,0.30m)
**.loRaNodes[34].**.initialZ = 67.83669979590923m + uniform(-0.30m,0.30m)
**.loRaNodes[35].**.initialX = 1323.198366719531m + uniform(-0.30m,0.30m)
**.loRaNodes[35].**.initialY = 0.8m + uniform(-0.30m,0.30m)
**.loRaNodes[35].**.initialZ = 106.35723291896284m + uniform(-0.30m,0.30m)
**.loRaNodes[36].**.initialX = 1322.4035024548648m + uniform(-0.30m,0.30m)
**.loRaNodes[36].**.initialY = 0.8m + uniform(-0.30m,0.30m)
**.loRaNodes[36].**.initialZ = 143.34463597880676m + uniform(-0.30m,0.30m)
**.loRaNodes[37].**.initialX = 1307.2514299241593m + uniform(-0.30m,0.30m)
**.loRaNodes[37].**.initialY = 0.8m + uniform(-0.30m,0.30m)
**.loRaNodes[37].**.initialZ = 163.3714939467609m + uniform(-0.30m,0.30m)
**.loRaNodes[38].**.initialX = 1263.1067484281957m + uniform(-0.30m,0.30m)
**.loRaNodes[38].**.initialY = 0.8m + uniform(-0.30m,0.30m)
**.loRaNodes[38].**.initialZ = 162.42300738813356m + uniform(-0.30m,0.30m)
**.loRaNodes[39].**.initialX = 1219.0812319172546m + uniform(-0.30m,0.30m)
**.loRaNodes[39].**.initialY = 0.8m + uniform(-0.30m,0.30m)
**.loRaNodes[39].**.initialZ = 155.9266465306282m + uniform(-0.30m,0.30m)
**.loRaNodes[40].**.initialX = 1189.6514288000762m + uniform(-0.30m,0.30m)
**.loRaNodes[40].**.initialY = 0.8m + uniform(-0.30m,0.30m)
**.loRaNodes[40].**.initialZ = 155.2946101669222m + uniform(-0.30m,0.30m)
**.loRaNodes[41].**.initialX = 1145.3082066568313m + uniform(-0.30m,0.30m)
**.loRaNodes[41].**.initialY = 0.8m + uniform(-0.30m,0.30m)
**.loRaNodes[41].**.initialZ = 163.59360009618104m + uniform(-0.30m,0.30m)
**.loRaNodes[42].**.initialX = 1115.3623710130341m + uniform(-0.30m,0.30m)
**.loRaNodes[42].**.initialY = 0.8m + uniform(-0.30m,0.30m)
**.loRaNodes[42].**.initialZ = 187.00362967373803m + uniform(-0.30m,0.30m)
**.loRaNodes[43].**.initialX = 1085.2579397619702m + uniform(-0.30m,0.30m)
**.loRaNodes[43].**.initialY = 0.8m + uniform(-0.30m,0.30m)
**.loRaNodes[43].**.initialZ = 217.81124054221436m + uniform(-0.30m,0.30m)
**.loRaNodes[44].**.initialX = 1069.5509485981893m + uniform(-0.30m,0.30m)
**.loRaNodes[44].**.initialY = 0.8m + uniform(-0.30m,0.30m)
**.loRaNodes[44].**.initialZ = 263.72968358919024m + uniform(-0.30m,0.30m)
**.loRaNodes[45].**.initialX = 1068.3602865983266m + uniform(-0.30m,0.30m)
**.loRaNodes[45].**.initialY = 0.8m + uniform(-0.30m,0.30m)
**.loRaNodes[45].**.initialZ = 319.21077610738575m + uniform(-0.30m,0.30m)
**.loRaNodes[46].**.initialX = 1052.5344798454316m + uniform(-0.30m,0.30m)
**.loRaNodes[46].**.initialY = 0.8m + uniform(-0.30m,0.30m)
**.loRaNodes[46].**.initialZ = 370.67735739797354m + uniform(-0.30m,0.30m)
**.loRaNodes[47].**.initialX = 1006.8435677303933m + uniform(-0.30m,0.30m)
**.loRaNodes[47].**.initialY = 0.8m + uniform(-0.30m,0.30m)
**.loRaNodes[47].**.initialZ = 441.855611840263m + uniform(-0.30m,0.30m)
**.loRaNodes[48].**.initialX = 944.6939125917852m + uniform(-0.30m,0.30m)
**.loRaNodes[48].**.initialY = 0.8m + uniform(-0.30m,0.30m)
**.loRaNodes[48].**.initialZ = 594.0907818782143m + uniform(-0.30m,0.30m)
**.loRaNodes[49].**.initialX = 929.1865710807033m + uniform(-0.30m,0.30m)
**.loRaNodes[49].**.initialY = 0.8m + uniform(-0.30m,0.30m)
**.loRaNodes[49].**.initialZ = 630.7626120466739m + uniform(-0.30m,0.30m)
**.loRaNodes[50].**.initialX = 837.1759045282379m + uniform(-0.30m,0.30m)
**.loRaNodes[50].**.initialY = 0.8m + uniform(-0.30m,0.30m)
**.loRaNodes[50].**.initialZ = 802.7105106557719m + uniform(-0.30m,0.30m)
**.loRaNodes[51].**.initialX = 922.0075135364896m + uniform(-0.30m,0.30m)
**.loRaNodes[51].**.initialY = 0.8m + uniform(-0.30m,0.30m)
**.loRaNodes[51].**.initialZ = 965.4986864700913m + uniform(-0.30m,0.30m)
**.loRaNodes[52].**.initialX = 995.3763365306659m + uniform(-0.30m,0.30m)
**.loRaNodes[52].**.initialY = 0.8m + uniform(-0.30m,0.30m)
**.loRaNodes[52].**.initialZ = 976.323713910766m + uniform(-0.30m,0.30m)
**.loRaNodes[53].**.initialX = 1024.4856953150593m + uniform(-0.30m,0.30m)
**.loRaNodes[53].**.initialY = 0.8m + uniform(-0.30m,0.30m)
**.loRaNodes[53].**.initialZ = 991.750136977993m + uniform(-0.30m,0.30m)
**.loRaNodes[54].**.initialX = 1038.4449654002674m + uniform(-0.30m,0.30m)
**.loRaNodes[54].**.initialY = 0.8m + uniform(-0.30m,0.30m)
**.loRaNodes[54].**.initialZ = 1027.2039608582854m + uniform(-0.30m,0.30m)
**.loRaNodes[55].**.initialX = 1052.9995291774394m + uniform(-0.30m,0.30m)
**.loRaNodes[55].**.initialY = 0.8m + uniform(-0.30m,0.30m)
**.loRaNodes[55].**.initialZ = 1034.9172399486415m + uniform(-0.30m,0.30m)
**.loRaNodes[56].**.initialX = 1082.4658911137376m + uniform(-0.30m,0.30m)
**.loRaNodes[56].**.initialY = 0.8m + uniform(-0.30m,0.30m)
**.loRaNodes[56].**.initialZ = 1033.699532612227m + uniform(-0.30m,0.30m)
**.loRaNodes[57].**.initialX = 1141.2398009988246m + uniform(-0.30m,0.30m)
**.loRaNodes[57].**.initialY = 0.8m + uniform(-0.30m,0.30m)
**.loRaNodes[57].**.initialZ = 1038.661918791011m + uniform(-0.30m,0.30m)
**.loRaNodes[58].**.initialX = 1141.8355174276512m + uniform(-0.30m,0.30m)
**.loRaNodes[58].**.initialY = 0.8m + uniform(-0.30m,0.30m)
**.loRaNodes[58].**.initialZ = 1010.9213409195654m + uniform(-0.30m,0.30m)
**.loRaNodes[59].**.initialX = 1449.2649836753262m + uniform(-0.30m,0.30m)
**.loRaNodes[59].**.initialY = 0.8m + uniform(-0.30m,0.30m)
**.loRaNodes[59].**.initialZ = 1089.6878612162545m + uniform(-0.30m,0.30m)
**.loRaNodes[60].**.initialX = 1479.3679375521606m + uniform(-0.30m,0.30m)
**.loRaNodes[60].**.initialY = 0.8m + uniform(-0.30m,0.30m)
**.loRaNodes[60].**.initialZ = 1058.8815980833024m + uniform(-0.30m,0.30m)
**.loRaNodes[61].**.initialX = 1495.0760867836652m + uniform(-0.30m,0.30m)
**.loRaNodes[61].**.initialY = 0.8m + uniform(-0.30m,0.30m)
**.loRaNodes[61].**.initialZ = 1012.9638502066955m + uniform(-0.30m,0.30m)
**.loRaNodes[62].**.initialX = 1495.991325893323m + uniform(-0.30m,0.30m)
**.loRaNodes[62].**.initialY = 0.8m + uniform(-0.30m,0.30m)
**.loRaNodes[62].**.initialZ = 970.4282728708349m + uniform(-0.30m,0.30m)
**.loRaNodes[63].**.initialX = 1527.0898344954476m + uniform(-0.30m,0.30m)
**.loRaNodes[63].**.initialY = 0.8m + uniform(-0.30m,0.30m)
**.loRaNodes[63].**.initialZ = 893.3878419878893m + uniform(-0.30m,0.30m)
**.loRaNodes[64].**.initialX = 1556.9947221695911m + uniform(-0.30m,0.30m)
**.loRaNodes[64].**.initialY = 0.8m + uniform(-0.30m,0.30m)
**.loRaNodes[64].**.initialZ = 871.8286982364953m + uniform(-0.30m,0.30m)
**.loRaNodes[65].**.initialX = 1586.7803322874242m + uniform(-0.30m,0.30m)
**.loRaNodes[65].**.initialY = 0.8m + uniform(-0.30m,0.30m)
**.loRaNodes[65].**.initialZ = 855.8177760490216m + uniform(-0.30m,0.30m)
**.loRaNodes[66].**.initialX = 1615.8095155304763m + uniform(-0.30m,0.30m)
**.loRaNodes[66].**.initialY = 0.8m + uniform(-0.30m,0.30m)
**.loRaNodes[66].**.initialZ = 874.9450437049381m + uniform(-0.30m,0.30m)
**.loRaNodes[67].**.initialX = 1659.5920141463866m + uniform(-0.30m,0.30m)
**.loRaNodes[67].**.initialY = 0.8m + uniform(-0.30m,0.30m)
**.loRaNodes[67].**.initialZ = 892.5399065506645m + uniform(-0.30m,0.30m)
**.loRaNodes[68].**.initialX = 1703.4938524177996m + uniform(-0.30m,0.30m)
**.loRaNodes[68].**.initialY = 0.8m + uniform(-0.30m,0.30m)
**.loRaNodes[68].**.initialZ = 904.5868876529858m + uniform(-0.30m,0.30m)
**.loRaNodes[69].**.initialX = 1718.326980689657m + uniform(-0.30m,0.30m)
**.loRaNodes[69].**.initialY = 0.8m + uniform(-0.30m,0.30m)
**.loRaNodes[69].**.initialZ = 899.35573360743m + uniform(-0.30m,0.30m)
**.loRaNodes[70].**.initialX = 1748.4316243909998m + uniform(-0.30m,0.30m)
**.loRaNodes[70].**.initialY = 0.8m + uniform(-0.30m,0.30m)
**.loRaNodes[70].**.initialZ = 868.5503951217979m + uniform(-0.30m,0.30m)
**.loRaNodes[71].**.initialX = 1763.7430602327222m + uniform(-0.30m,0.30m)
**.loRaNodes[71].**.initialY = 0.8m + uniform(-0.30m,0.30m)
**.loRaNodes[71].**.initialZ = 841.1268370421603m + uniform(-0.30m,0.30m)
**.loRaNodes[72].**.initialX = 1779.2140074336203m + uniform(-0.30m,0.30m)
**.loRaNodes[72].**.initialY = 0.8m + uniform(-0.30m,0.30m)
**.loRaNodes[72].**.initialZ = 806.3058111215942m + uniform(-0.30m,0.30m)
**.loRaNodes[73].**.initialX = 1794.8843588290038m + uniform(-0.30m,0.30m)
**.loRaNodes[73].**.initialY = 0.8m + uniform(-0.30m,0.30m)
**.loRaNodes[73].**.initialZ = 762.2379444967955m + uniform(-0.30m,0.30m)
**.loRaNodes[74].**.initialX = 1780.9675646376563m + uniform(-0.30m,0.30m)
**.loRaNodes[74].**.initialY = 0.8m + uniform(-0.30m,0.30m)
**.loRaNodes[74].**.initialZ = 724.9333867775276m + uniform(-0.30m,0.30m)
**.loRaNodes[75].**.initialX = 1781.764626397402m + uniform(-0.30m,0.30m)
**.loRaNodes[75].**.initialY = 0.8m + uniform(-0.30m,0.30m)
**.loRaNodes[75].**.initialZ = 687.9459241009317m + uniform(-0.30m,0.30m)
**.loRaNodes[76].**.initialX = 1782.561682096799m + uniform(-0.30m,0.30m)
**.loRaNodes[76].**.initialY = 0.8m + uniform(-0.30m,0.30m)
**.loRaNodes[76].**.initialZ = 650.9584632590413m + uniform(-0.30m,0.30m)
**.loRaNodes[77].**.initialX = 1768.724305155105m + uniform(-0.30m,0.30m)
**.loRaNodes[77].**.initialY = 0.8m + uniform(-0.30m,0.30m)
**.loRaNodes[77].**.initialZ = 609.9551954073831m + uniform(-0.30m,0.30m)
**.loRaNodes[78].**.initialX = 1769.6009797640145m + uniform(-0.30m,0.30m)
**.loRaNodes[78].**.initialY = 0.8m + uniform(-0.30m,0.30m)
**.loRaNodes[78].**.initialZ = 569.2689938931726m + uniform(-0.30m,0.30m)
**.loRaNodes[79].**.initialX = 1785.2716261418536m + uniform(-0.30m,0.30m)
**.loRaNodes[79].**.initialY = 0.8m + uniform(-0.30m,0.30m)
**.loRaNodes[79].**.initialZ = 525.2011101101525m + uniform(-0.30m,0.30m)
**.loRaNodes[80].**.initialX = 1801.7395094948588m + uniform(-0.30m,0.30m)
**.loRaNodes[80].**.initialY = 0.8m + uniform(-0.30m,0.30m)
**.loRaNodes[80].**.initialZ = 444.14580122195184m + uniform(-0.30m,0.30m)
**.loRaNodes[81].**.initialX = 1802.61629875598m + uniform(-0.30m,0.30m)
**.loRaNodes[81].**.initialY = 0.8m + uniform(-0.30m,0.30m)
**.loRaNodes[81].**.initialZ = 403.45960663305596m + uniform(-0.30m,0.30m)
**.loRaNodes[82].**.initialX = 1714.727646664367m + uniform(-0.30m,0.30m)
**.loRaNodes[82].**.initialY = 0.8m + uniform(-0.30m,0.30m)
**.loRaNodes[82].**.initialZ = 383.0637755296193m + uniform(-0.30m,0.30m)
**.loRaNodes[83].**.initialX = 1656.307556214626m + uniform(-0.30m,0.30m)
**.loRaNodes[83].**.initialY = 0.8m + uniform(-0.30m,0.30m)
**.loRaNodes[83].**.initialZ = 361.45313673466444m + uniform(-0.30m,0.30m)
**.loRaNodes[84].**.initialX = 1627.435822943109m + uniform(-0.30m,0.30m)
**.loRaNodes[84].**.initialY = 0.8m + uniform(-0.30m,0.30m)
**.loRaNodes[84].**.initialZ = 334.92831662483513m + uniform(-0.30m,0.30m)
**.loRaNodes[85].**.initialX = 1584.2870900148991m + uniform(-0.30m,0.30m)
**.loRaNodes[85].**.initialY = 0.8m + uniform(-0.30m,0.30m)
**.loRaNodes[85].**.initialZ = 287.74380372464657m + uniform(-0.30m,0.30m)
**.loRaNodes[86].**.initialX = 1570.129602681729m + uniform(-0.30m,0.30m)
**.loRaNodes[86].**.initialY = 0.8m + uniform(-0.30m,0.30m)
**.loRaNodes[86].**.initialZ = 261.53591651283205m + uniform(-0.30m,0.30m)
**.loRaNodes[87].**.initialX = 1467.2457843156299m + uniform(-0.30m,0.30m)
**.loRaNodes[87].**.initialY = 0.8m + uniform(-0.30m,0.30m)
**.loRaNodes[87].**.initialZ = 253.77172174770385m + uniform(-0.30m,0.30m)
**.loRaNodes[88].**.initialX = 1423.1015535126207m + uniform(-0.30m,0.30m)
**.loRaNodes[88].**.initialY = 0.8m + uniform(-0.30m,0.30m)
**.loRaNodes[88].**.initialZ = 252.82236515404657m + uniform(-0.30m,0.30m)
**.loRaNodes[89].**.initialX = 1378.9175688090036m + uniform(-0.30m,0.30m)
**.loRaNodes[89].**.initialY = 0.8m + uniform(-0.30m,0.30m)
**.loRaNodes[89].**.initialZ = 253.72261462779716m + uniform(-0.30m,0.30m)
**.loRaNodes[90].**.initialX = 1363.0102000954794m + uniform(-0.30m,0.30m)
**.loRaNodes[90].**.initialY = 0.8m + uniform(-0.30m,0.30m)
**.loRaNodes[90].**.initialZ = 308.8874137084931m + uniform(-0.30m,0.30m)
**.loRaNodes[91].**.initialX = 1392.2009128337959m + uniform(-0.30m,0.30m)
**.loRaNodes[91].**.initialY = 0.8m + uniform(-0.30m,0.30m)
**.loRaNodes[91].**.initialZ = 320.6163109159097m + uniform(-0.30m,0.30m)
**.loRaNodes[92].**.initialX = 1436.1459207214648m + uniform(-0.30m,0.30m)
**.loRaNodes[92].**.initialY = 0.8m + uniform(-0.30m,0.30m)
**.loRaNodes[92].**.initialZ = 330.81237117853016m + uniform(-0.30m,0.30m)
**.loRaNodes[93].**.initialX = 1495.0839137955336m + uniform(-0.30m,0.30m)
**.loRaNodes[93].**.initialY = 0.8m + uniform(-0.30m,0.30m)
**.loRaNodes[93].**.initialZ = 328.3796026366763m + uniform(-0.30m,0.30m)
**.loRaNodes[94].**.initialX = 1539.18796177872m + uniform(-0.30m,0.30m)
**.loRaNodes[94].**.initialY = 0.8m + uniform(-0.30m,0.30m)
**.loRaNodes[94].**.initialZ = 331.1787288226187m + uniform(-0.30m,0.30m)
**.loRaNodes[95].**.initialX = 1553.743383361143m + uniform(-0.30m,0.30m)
**.loRaNodes[95].**.initialY = 0.8m + uniform(-0.30m,0.30m)
**.loRaNodes[95].**.initialZ = 338.89285189146176m + uniform(-0.30m,0.30m)
**.loRaNodes[96].**.initialX = 1582.694931085105m + uniform(-0.30m,0.30m)
**.loRaNodes[96].**.initialY = 0.8m + uniform(-0.30m,0.30m)
**.loRaNodes[96].**.initialZ = 361.7186642815359m + uniform(-0.30m,0.30m)
**.loRaNodes[97].**.initialX = 1596.6929525994929m + uniform(-0.30m,0.30m)
**.loRaNodes[97].**.initialY = 0.8m + uniform(-0.30m,0.30m)
**.loRaNodes[97].**.initialZ = 395.32407135376707m + uniform(-0.30m,0.30m)
**.loRaNodes[98].**.initialX = 1655.3120340335881m + uniform(-0.30m,0.30m)
**.loRaNodes[98].**.initialY = 0.8m + uniform(-0.30m,0.30m)
**.loRaNodes[98].**.initialZ = 407.6874343045056m + uniform(-0.30m,0.30m)
**.loRaNodes[99].**.initialX = 1684.3427234567935m + uniform(-0.30m,0.30m)
**.loRaNodes[99].**.initialY = 0.8m + uniform(-0.30m,0.30m)
**.loRaNodes[99].**.initialZ = 426.81487827794626m + uniform(-0.30m,0.30m)
**.loRaNodes[100].**.initialX = 1727.52996946231m + uniform(-0.30m,0.30m)
**.loRaNodes[100].**.initialY = 0.8m + uniform(-0.30m,0.30m)
**.loRaNodes[100].**.initialZ = 472.15059599652886m + uniform(-0.30m,0.30m)
**.loRaNodes[101].**.initialX = 1726.7332058561733m + uniform(-0.30m,0.30m)
**.loRaNodes[101].**.initialY = 0.8m + uniform(-0.30m,0.30m)
**.loRaNodes[101].**.initialZ = 509.1380441249348m + uniform(-0.30m,0.30m)
**.loRaNodes[102].**.initialX = 1711.2221947589424m + uniform(-0.30m,0.30m)
**.loRaNodes[102].**.initialY = 0.8m + uniform(-0.30m,0.30m)
**.loRaNodes[102].**.initialZ = 545.808537335135m + uniform(-0.30m,0.30m)
**.loRaNodes[103].**.initialX = 1666.9201707366155m + uniform(-0.30m,0.30m)
**.loRaNodes[103].**.initialY = 0.8m + uniform(-0.30m,0.30m)
**.loRaNodes[103].**.initialZ = 552.2553134597838m + uniform(-0.30m,0.30m)
**.loRaNodes[104].**.initialX = 1607.8642040024279m + uniform(-0.30m,0.30m)
**.loRaNodes[104].**.initialY = 0.8m + uniform(-0.30m,0.30m)
**.loRaNodes[104].**.initialZ = 560.2349220467731m + uniform(-0.30m,0.30m)
**.loRaNodes[105].**.initialX = 1606.7096359955613m + uniform(-0.30m,0.30m)
**.loRaNodes[105].**.initialY = 0.8m + uniform(-0.30m,0.30m)
**.loRaNodes[105].**.initialZ = 613.8667176035233m + uniform(-0.30m,0.30m)
**.loRaNodes[106].**.initialX = 1605.7541218114784m + uniform(-0.30m,0.30m)
**.loRaNodes[106].**.initialY = 0.8m + uniform(-0.30m,0.30m)
**.loRaNodes[106].**.initialZ = 658.2516547744162m + uniform(-0.30m,0.30m)
**.loRaNodes[107].**.initialX = 1605.0374804519815m + uniform(-0.30m,0.30m)
**.loRaNodes[107].**.initialY = 0.8m + uniform(-0.30m,0.30m)
**.loRaNodes[107].**.initialZ = 691.5403593848459m + uniform(-0.30m,0.30m)
**.loRaNodes[108].**.initialX = 1471.1794844111428m + uniform(-0.30m,0.30m)
**.loRaNodes[108].**.initialY = 0.8m + uniform(-0.30m,0.30m)
**.loRaNodes[108].**.initialZ = 755.2679362762719m + uniform(-0.30m,0.30m)
**.loRaNodes[109].**.initialX = 1456.7043179584434m + uniform(-0.30m,0.30m)
**.loRaNodes[109].**.initialY = 0.8m + uniform(-0.30m,0.30m)
**.loRaNodes[109].**.initialZ = 743.8551854346879m + uniform(-0.30m,0.30m)
**.loRaNodes[110].**.initialX = 1488.2407914451323m + uniform(-0.30m,0.30m)
**.loRaNodes[110].**.initialY = 0.8m + uniform(-0.30m,0.30m)
**.loRaNodes[110].**.initialZ = 646.4715228141285m + uniform(-0.30m,0.30m)
**.loRaNodes[111].**.initialX = 1517.8280620120931m + uniform(-0.30m,0.30m)
**.loRaNodes[111].**.initialY = 0.8m + uniform(-0.30m,0.30m)
**.loRaNodes[111].**.initialZ = 639.7071948815137m + uniform(-0.30m,0.30m)
**.loRaNodes[112].**.initialX = 1546.7785857502604m + uniform(-0.30m,0.30m)
**.loRaNodes[112].**.initialY = 0.8m + uniform(-0.30m,0.30m)
**.loRaNodes[112].**.initialZ = 662.5329263699241m + uniform(-0.30m,0.30m)
**.loRaNodes[113].**.initialX = 1516.9128095650813m + uniform(-0.30m,0.30m)
**.loRaNodes[113].**.initialY = 0.8m + uniform(-0.30m,0.30m)
**.loRaNodes[113].**.initialZ = 682.2427544570528m + uniform(-0.30m,0.30m)
**.loRaNodes[114].**.initialX = 1487.0073904030723m + uniform(-0.30m,0.30m)
**.loRaNodes[114].**.initialY = 0.8m + uniform(-0.30m,0.30m)
**.loRaNodes[114].**.initialZ = 703.8020577440038m + uniform(-0.30m,0.30m)
**.loRaNodes[115].**.initialX = 1486.2912153854268m + uniform(-0.30m,0.30m)
**.loRaNodes[115].**.initialY = 0.8m + uniform(-0.30m,0.30m)
**.loRaNodes[115].**.initialZ = 737.0907574687153m + uniform(-0.30m,0.30m)
**.loRaNodes[116].**.initialX = 1486.0127015550388m + uniform(-0.30m,0.30m)
**.loRaNodes[116].**.initialY = 0.8m + uniform(-0.30m,0.30m)
**.loRaNodes[116].**.initialZ = 750.0363633176312m + uniform(-0.30m,0.30m)
**.loRaNodes[117].**.initialX = 1516.1965194590157m + uniform(-0.30m,0.30m)
**.loRaNodes[117].**.initialY = 0.8m + uniform(-0.30m,0.30m)
**.loRaNodes[117].**.initialZ = 715.5314549482428m + uniform(-0.30m,0.30m)
**.loRaNodes[118].**.initialX = 1546.141781133716m + uniform(-0.30m,0.30m)
**.loRaNodes[118].**.initialY = 0.8m + uniform(-0.30m,0.30m)
**.loRaNodes[118].**.initialZ = 692.1228830432519m + uniform(-0.30m,0.30m)
**.loRaNodes[119].**.initialX = 1561.2935917462455m + uniform(-0.30m,0.30m)
**.loRaNodes[119].**.initialY = 0.8m + uniform(-0.30m,0.30m)
**.loRaNodes[119].**.initialZ = 672.0964601468295m + uniform(-0.30m,0.30m)
**.loRaNodes[120].**.initialX = 1636.4564193396363m + uniform(-0.30m,0.30m)
**.loRaNodes[120].**.initialY = 0.8m + uniform(-0.30m,0.30m)
**.loRaNodes[120].**.initialZ = 599.7053155247122m + uniform(-0.30m,0.30m)
**.loRaNodes[121].**.initialX = 1637.4120797030628m + uniform(-0.30m,0.30m)
**.loRaNodes[121].**.initialY = 0.8m + uniform(-0.30m,0.30m)
**.loRaNodes[121].**.initialZ = 555.3203795291483m + uniform(-0.30m,0.30m)
**.loRaNodes[122].**.initialX = 1623.414540703874m + uniform(-0.30m,0.30m)
**.loRaNodes[122].**.initialY = 0.8m + uniform(-0.30m,0.30m)
**.loRaNodes[122].**.initialZ = 521.714880047366m + uniform(-0.30m,0.30m)
**.loRaNodes[123].**.initialX = 1566.1097081935732m + uniform(-0.30m,0.30m)
**.loRaNodes[123].**.initialY = 0.8m + uniform(-0.30m,0.30m)
**.loRaNodes[123].**.initialZ = 448.32244212413207m + uniform(-0.30m,0.30m)
**.loRaNodes[124].**.initialX = 1582.2172786842566m + uniform(-0.30m,0.30m)
**.loRaNodes[124].**.initialY = 0.8m + uniform(-0.30m,0.30m)
**.loRaNodes[124].**.initialZ = 383.9111238787882m + uniform(-0.30m,0.30m)
**.loRaNodes[125].**.initialX = 1553.544395574485m + uniform(-0.30m,0.30m)
**.loRaNodes[125].**.initialY = 0.8m + uniform(-0.30m,0.30m)
**.loRaNodes[125].**.initialZ = 348.13970921421424m + uniform(-0.30m,0.30m)
**.loRaNodes[126].**.initialX = 1522.6827455244493m + uniform(-0.30m,0.30m)
**.loRaNodes[126].**.initialY = 0.8m + uniform(-0.30m,0.30m)
**.loRaNodes[126].**.initialZ = 414.08383248047903m + uniform(-0.30m,0.30m)
**.loRaNodes[127].**.initialX = 1522.563370761578m + uniform(-0.30m,0.30m)
**.loRaNodes[127].**.initialY = 0.8m + uniform(-0.30m,0.30m)
**.loRaNodes[127].**.initialZ = 419.6319471313618m + uniform(-0.30m,0.30m)
**.loRaNodes[128].**.initialX = 1508.4855290264823m + uniform(-0.30m,0.30m)
**.loRaNodes[128].**.initialY = 0.8m + uniform(-0.30m,0.30m)
**.loRaNodes[128].**.initialZ = 389.7254162617028m + uniform(-0.30m,0.30m)
**.loRaNodes[129].**.initialX = 1464.5011274198769m + uniform(-0.30m,0.30m)
**.loRaNodes[129].**.initialY = 0.8m + uniform(-0.30m,0.30m)
**.loRaNodes[129].**.initialZ = 381.37832844629884m + uniform(-0.30m,0.30m)
**.loRaNodes[130].**.initialX = 1420.27804048697m + uniform(-0.30m,0.30m)
**.loRaNodes[130].**.initialY = 0.8m + uniform(-0.30m,0.30m)
**.loRaNodes[130].**.initialZ = 384.1277039963752m + uniform(-0.30m,0.30m)
**.loRaNodes[131].**.initialX = 1464.4215710737044m + uniform(-0.30m,0.30m)
**.loRaNodes[131].**.initialY = 0.8m + uniform(-0.30m,0.30m)